LTspice 24.1.9 for Windows
Circuit: C:\Temp\ltspice_12ch\chain_ac.net
Start Time: Sat Jul 11 02:08:11 2026
Options: plotwinsize=0 numdgt=7
solver = Normal
Maximum thread count: 24
tnom = 27
temp = 27
method = trap
d_in_clmp: Emission coefficient, N=0.02, too small, this might lead to numerical problems.
Direct Newton iteration failed to find .op point.  (Use ".option noopiter" to skip.)
Starting Gmin stepping
Gmin = 10
Gmin = 1.07374
Gmin = 0.115292
Gmin = 0.0123794
Gmin = 0.00132923
Gmin = 0.000142725
Gmin = 1.5325e-05
Gmin = 1.6455e-06
Gmin = 1.76685e-07
Gmin = 1.89714e-08
Gmin = 2.03704e-09
Gmin = 2.18725e-10
Gmin = 2.34854e-11
Gmin = 2.52173e-12
Gmin = 2.70769e-13
Gmin = 0
Gmin stepping succeeded in finding the operating point.

Total elapsed time: 0.418 seconds.

Files loaded:
C:\Temp\ltspice_12ch\chain_ac.net
C:\Temp\ltspice_12ch\models.inc
C:\Users\darro\AppData\Local\LTspice\lib\sub\UniversalOpAmp2.lib
C:\Users\darro\AppData\Local\LTspice\lib\cmp\standard.jft
C:\Users\darro\AppData\Local\LTspice\lib\sub\LTC.lib
C:\Temp\ltspice_12ch\cr112_csp.sub
C:\Temp\ltspice_12ch\cr200_1us.sub
C:\Temp\ltspice_12ch\cr210.sub
C:\Temp\ltspice_12ch\ths3491_rgt.lib

zmax: MAX(mag(V(OUT_50)))=(110.5284743dB,0°) FROM 0.1 TO 100000000
zmax_db: MAX(db(V(OUT_50)))=(44.9239095273dB,177.950361511°) FROM 0.1 TO 100000000
